
---------- Begin Simulation Statistics ----------
final_tick                                 4982862500                       # Number of ticks from beginning of simulation (restored from checkpoints and never reset)
host_inst_rate                                 237199                       # Simulator instruction rate (inst/s)
host_mem_usage                                 838568                       # Number of bytes of host memory used
host_op_rate                                   237222                       # Simulator op (including micro ops) rate (op/s)
host_seconds                                    85.13                       # Real time elapsed on the host
host_tick_rate                               58532035                       # Simulator tick rate (ticks/s)
sim_freq                                 1000000000000                       # Frequency of simulated ticks
sim_insts                                    20192793                       # Number of instructions simulated
sim_ops                                      20194858                       # Number of ops (including micro ops) simulated
sim_seconds                                  0.004983                       # Number of seconds simulated
sim_ticks                                  4982862500                       # Number of ticks simulated
system.clk_domain.clock                          1000                       # Clock period in ticks
system.cpu.branchPred.BTBCorrect                    0                       # Number of correct BTB predictions (this stat may not work properly.
system.cpu.branchPred.BTBHitPct             87.716497                       # BTB Hit Percentage
system.cpu.branchPred.BTBHits                 1445317                       # Number of BTB hits
system.cpu.branchPred.BTBLookups              1647714                       # Number of BTB lookups
system.cpu.branchPred.RASInCorrect                 92                       # Number of incorrect RAS predictions.
system.cpu.branchPred.condIncorrect               892                       # Number of conditional branches incorrect
system.cpu.branchPred.condPredicted           2260128                       # Number of conditional branches predicted
system.cpu.branchPred.indirectHits                 37                       # Number of indirect target hits.
system.cpu.branchPred.indirectLookups             234                       # Number of indirect predictor lookups.
system.cpu.branchPred.indirectMisses              197                       # Number of indirect misses.
system.cpu.branchPred.lookups                 3361941                       # Number of BP lookups
system.cpu.branchPred.usedRAS                  500703                       # Number of times the RAS was used to get a target.
system.cpu.branchPredindirectMispredicted          104                       # Number of mispredicted indirect branches.
system.cpu.cc_regfile_reads                  69004647                       # number of cc regfile reads
system.cpu.cc_regfile_writes                 11988897                       # number of cc regfile writes
system.cpu.commit.amos                              0                       # Number of atomic instructions committed
system.cpu.commit.branchMispredicts               647                       # The number of times a branch was mispredicted
system.cpu.commit.branches                    3358697                       # Number of branches committed
system.cpu.commit.bw_lim_events                   241                       # number cycles where commit BW limit reached
system.cpu.commit.commitNonSpecStalls              46                       # The number of times commit has been forced to stall to communicate backwards
system.cpu.commit.commitSquashedInsts            6888                       # The number of squashed insts skipped by commit
system.cpu.commit.committedInsts             20192793                       # Number of instructions committed
system.cpu.commit.committedOps               20194858                       # Number of ops (including micro ops) committed
system.cpu.commit.committed_per_cycle::samples      9922263                       # Number of insts commited each cycle
system.cpu.commit.committed_per_cycle::mean     2.035308                       # Number of insts commited each cycle
system.cpu.commit.committed_per_cycle::stdev     1.549700                       # Number of insts commited each cycle
system.cpu.commit.committed_per_cycle::underflows            0      0.00%      0.00% # Number of insts commited each cycle
system.cpu.commit.committed_per_cycle::0       857914      8.65%      8.65% # Number of insts commited each cycle
system.cpu.commit.committed_per_cycle::1      4176827     42.10%     50.74% # Number of insts commited each cycle
system.cpu.commit.committed_per_cycle::2      1652253     16.65%     67.39% # Number of insts commited each cycle
system.cpu.commit.committed_per_cycle::3      1412814     14.24%     81.63% # Number of insts commited each cycle
system.cpu.commit.committed_per_cycle::4      1238331     12.48%     94.11% # Number of insts commited each cycle
system.cpu.commit.committed_per_cycle::5       183572      1.85%     95.96% # Number of insts commited each cycle
system.cpu.commit.committed_per_cycle::6       200206      2.02%     97.98% # Number of insts commited each cycle
system.cpu.commit.committed_per_cycle::7       200105      2.02%    100.00% # Number of insts commited each cycle
system.cpu.commit.committed_per_cycle::8          241      0.00%    100.00% # Number of insts commited each cycle
system.cpu.commit.committed_per_cycle::overflows            0      0.00%    100.00% # Number of insts commited each cycle
system.cpu.commit.committed_per_cycle::min_value            0                       # Number of insts commited each cycle
system.cpu.commit.committed_per_cycle::max_value            8                       # Number of insts commited each cycle
system.cpu.commit.committed_per_cycle::total      9922263                       # Number of insts commited each cycle
system.cpu.commit.fp_insts                          0                       # Number of committed floating point instructions.
system.cpu.commit.function_calls               500260                       # Number of function calls committed.
system.cpu.commit.int_insts                  18236846                       # Number of committed integer instructions.
system.cpu.commit.loads                       2802484                       # Number of loads committed
system.cpu.commit.membars                          18                       # Number of memory barriers committed
system.cpu.commit.op_class_0::No_OpClass            0      0.00%      0.00% # Class of committed instruction
system.cpu.commit.op_class_0::IntAlu         16690152     82.65%     82.65% # Class of committed instruction
system.cpu.commit.op_class_0::IntMult              60      0.00%     82.65% # Class of committed instruction
system.cpu.commit.op_class_0::IntDiv                0      0.00%     82.65% # Class of committed instruction
system.cpu.commit.op_class_0::FloatAdd              0      0.00%     82.65% # Class of committed instruction
system.cpu.commit.op_class_0::FloatCmp              0      0.00%     82.65% # Class of committed instruction
system.cpu.commit.op_class_0::FloatCvt              0      0.00%     82.65% # Class of committed instruction
system.cpu.commit.op_class_0::FloatMult             0      0.00%     82.65% # Class of committed instruction
system.cpu.commit.op_class_0::FloatMultAcc            0      0.00%     82.65% # Class of committed instruction
system.cpu.commit.op_class_0::FloatDiv              0      0.00%     82.65% # Class of committed instruction
system.cpu.commit.op_class_0::FloatMisc             0      0.00%     82.65% # Class of committed instruction
system.cpu.commit.op_class_0::FloatSqrt             0      0.00%     82.65% # Class of committed instruction
system.cpu.commit.op_class_0::SimdAdd               0      0.00%     82.65% # Class of committed instruction
system.cpu.commit.op_class_0::SimdAddAcc            0      0.00%     82.65% # Class of committed instruction
system.cpu.commit.op_class_0::SimdAlu               0      0.00%     82.65% # Class of committed instruction
system.cpu.commit.op_class_0::SimdCmp               0      0.00%     82.65% # Class of committed instruction
system.cpu.commit.op_class_0::SimdCvt               0      0.00%     82.65% # Class of committed instruction
system.cpu.commit.op_class_0::SimdMisc              0      0.00%     82.65% # Class of committed instruction
system.cpu.commit.op_class_0::SimdMult              0      0.00%     82.65% # Class of committed instruction
system.cpu.commit.op_class_0::SimdMultAcc            0      0.00%     82.65% # Class of committed instruction
system.cpu.commit.op_class_0::SimdShift             0      0.00%     82.65% # Class of committed instruction
system.cpu.commit.op_class_0::SimdShiftAcc            0      0.00%     82.65% # Class of committed instruction
system.cpu.commit.op_class_0::SimdDiv               0      0.00%     82.65% # Class of committed instruction
system.cpu.commit.op_class_0::SimdSqrt              0      0.00%     82.65% # Class of committed instruction
system.cpu.commit.op_class_0::SimdFloatAdd            0      0.00%     82.65% # Class of committed instruction
system.cpu.commit.op_class_0::SimdFloatAlu            0      0.00%     82.65% # Class of committed instruction
system.cpu.commit.op_class_0::SimdFloatCmp            0      0.00%     82.65% # Class of committed instruction
system.cpu.commit.op_class_0::SimdFloatCvt            0      0.00%     82.65% # Class of committed instruction
system.cpu.commit.op_class_0::SimdFloatDiv            0      0.00%     82.65% # Class of committed instruction
system.cpu.commit.op_class_0::SimdFloatMisc            1      0.00%     82.65% # Class of committed instruction
system.cpu.commit.op_class_0::SimdFloatMult            0      0.00%     82.65% # Class of committed instruction
system.cpu.commit.op_class_0::SimdFloatMultAcc            0      0.00%     82.65% # Class of committed instruction
system.cpu.commit.op_class_0::SimdFloatSqrt            0      0.00%     82.65% # Class of committed instruction
system.cpu.commit.op_class_0::SimdReduceAdd            0      0.00%     82.65% # Class of committed instruction
system.cpu.commit.op_class_0::SimdReduceAlu            0      0.00%     82.65% # Class of committed instruction
system.cpu.commit.op_class_0::SimdReduceCmp            0      0.00%     82.65% # Class of committed instruction
system.cpu.commit.op_class_0::SimdFloatReduceAdd            0      0.00%     82.65% # Class of committed instruction
system.cpu.commit.op_class_0::SimdFloatReduceCmp            0      0.00%     82.65% # Class of committed instruction
system.cpu.commit.op_class_0::SimdAes               0      0.00%     82.65% # Class of committed instruction
system.cpu.commit.op_class_0::SimdAesMix            0      0.00%     82.65% # Class of committed instruction
system.cpu.commit.op_class_0::SimdSha1Hash            0      0.00%     82.65% # Class of committed instruction
system.cpu.commit.op_class_0::SimdSha1Hash2            0      0.00%     82.65% # Class of committed instruction
system.cpu.commit.op_class_0::SimdSha256Hash            0      0.00%     82.65% # Class of committed instruction
system.cpu.commit.op_class_0::SimdSha256Hash2            0      0.00%     82.65% # Class of committed instruction
system.cpu.commit.op_class_0::SimdShaSigma2            0      0.00%     82.65% # Class of committed instruction
system.cpu.commit.op_class_0::SimdShaSigma3            0      0.00%     82.65% # Class of committed instruction
system.cpu.commit.op_class_0::SimdPredAlu            0      0.00%     82.65% # Class of committed instruction
system.cpu.commit.op_class_0::MemRead         2802484     13.88%     96.52% # Class of committed instruction
system.cpu.commit.op_class_0::MemWrite         702161      3.48%    100.00% # Class of committed instruction
system.cpu.commit.op_class_0::FloatMemRead            0      0.00%    100.00% # Class of committed instruction
system.cpu.commit.op_class_0::FloatMemWrite            0      0.00%    100.00% # Class of committed instruction
system.cpu.commit.op_class_0::IprAccess             0      0.00%    100.00% # Class of committed instruction
system.cpu.commit.op_class_0::InstPrefetch            0      0.00%    100.00% # Class of committed instruction
system.cpu.commit.op_class_0::total          20194858                       # Class of committed instruction
system.cpu.commit.refs                        3504645                       # Number of memory references committed
system.cpu.commit.swp_count                         0                       # Number of s/w prefetches committed
system.cpu.commit.vec_insts                         0                       # Number of committed Vector instructions.
system.cpu.committedInsts                    20192793                       # Number of Instructions Simulated
system.cpu.committedOps                      20194858                       # Number of Ops (including micro ops) Simulated
system.cpu.cpi                               0.493529                       # CPI: Cycles Per Instruction
system.cpu.cpi_total                         0.493529                       # CPI: Total CPI of All Threads
system.cpu.dcache.LoadLockedReq_accesses::.cpu.data           19                       # number of LoadLockedReq accesses(hits+misses)
system.cpu.dcache.LoadLockedReq_accesses::total           19                       # number of LoadLockedReq accesses(hits+misses)
system.cpu.dcache.LoadLockedReq_avg_miss_latency::.cpu.data        10500                       # average LoadLockedReq miss latency
system.cpu.dcache.LoadLockedReq_avg_miss_latency::total        10500                       # average LoadLockedReq miss latency
system.cpu.dcache.LoadLockedReq_hits::.cpu.data           18                       # number of LoadLockedReq hits
system.cpu.dcache.LoadLockedReq_hits::total           18                       # number of LoadLockedReq hits
system.cpu.dcache.LoadLockedReq_miss_latency::.cpu.data        10500                       # number of LoadLockedReq miss cycles
system.cpu.dcache.LoadLockedReq_miss_latency::total        10500                       # number of LoadLockedReq miss cycles
system.cpu.dcache.LoadLockedReq_miss_rate::.cpu.data     0.052632                       # miss rate for LoadLockedReq accesses
system.cpu.dcache.LoadLockedReq_miss_rate::total     0.052632                       # miss rate for LoadLockedReq accesses
system.cpu.dcache.LoadLockedReq_misses::.cpu.data            1                       # number of LoadLockedReq misses
system.cpu.dcache.LoadLockedReq_misses::total            1                       # number of LoadLockedReq misses
system.cpu.dcache.LoadLockedReq_mshr_hits::.cpu.data            1                       # number of LoadLockedReq MSHR hits
system.cpu.dcache.LoadLockedReq_mshr_hits::total            1                       # number of LoadLockedReq MSHR hits
system.cpu.dcache.ReadReq_accesses::.cpu.data      2103167                       # number of ReadReq accesses(hits+misses)
system.cpu.dcache.ReadReq_accesses::total      2103167                       # number of ReadReq accesses(hits+misses)
system.cpu.dcache.ReadReq_avg_miss_latency::.cpu.data 13741.562123                       # average ReadReq miss latency
system.cpu.dcache.ReadReq_avg_miss_latency::total 13741.562123                       # average ReadReq miss latency
system.cpu.dcache.ReadReq_avg_mshr_miss_latency::.cpu.data 12456.584928                       # average ReadReq mshr miss latency
system.cpu.dcache.ReadReq_avg_mshr_miss_latency::total 12456.584928                       # average ReadReq mshr miss latency
system.cpu.dcache.ReadReq_hits::.cpu.data      2084116                       # number of ReadReq hits
system.cpu.dcache.ReadReq_hits::total         2084116                       # number of ReadReq hits
system.cpu.dcache.ReadReq_miss_latency::.cpu.data    261790500                       # number of ReadReq miss cycles
system.cpu.dcache.ReadReq_miss_latency::total    261790500                       # number of ReadReq miss cycles
system.cpu.dcache.ReadReq_miss_rate::.cpu.data     0.009058                       # miss rate for ReadReq accesses
system.cpu.dcache.ReadReq_miss_rate::total     0.009058                       # miss rate for ReadReq accesses
system.cpu.dcache.ReadReq_misses::.cpu.data        19051                       # number of ReadReq misses
system.cpu.dcache.ReadReq_misses::total         19051                       # number of ReadReq misses
system.cpu.dcache.ReadReq_mshr_hits::.cpu.data          129                       # number of ReadReq MSHR hits
system.cpu.dcache.ReadReq_mshr_hits::total          129                       # number of ReadReq MSHR hits
system.cpu.dcache.ReadReq_mshr_miss_latency::.cpu.data    235703500                       # number of ReadReq MSHR miss cycles
system.cpu.dcache.ReadReq_mshr_miss_latency::total    235703500                       # number of ReadReq MSHR miss cycles
system.cpu.dcache.ReadReq_mshr_miss_rate::.cpu.data     0.008997                       # mshr miss rate for ReadReq accesses
system.cpu.dcache.ReadReq_mshr_miss_rate::total     0.008997                       # mshr miss rate for ReadReq accesses
system.cpu.dcache.ReadReq_mshr_misses::.cpu.data        18922                       # number of ReadReq MSHR misses
system.cpu.dcache.ReadReq_mshr_misses::total        18922                       # number of ReadReq MSHR misses
system.cpu.dcache.StoreCondReq_accesses::.cpu.data           17                       # number of StoreCondReq accesses(hits+misses)
system.cpu.dcache.StoreCondReq_accesses::total           17                       # number of StoreCondReq accesses(hits+misses)
system.cpu.dcache.StoreCondReq_hits::.cpu.data           17                       # number of StoreCondReq hits
system.cpu.dcache.StoreCondReq_hits::total           17                       # number of StoreCondReq hits
system.cpu.dcache.WriteReq_accesses::.cpu.data       702061                       # number of WriteReq accesses(hits+misses)
system.cpu.dcache.WriteReq_accesses::total       702061                       # number of WriteReq accesses(hits+misses)
system.cpu.dcache.WriteReq_avg_miss_latency::.cpu.data 50810.088776                       # average WriteReq miss latency
system.cpu.dcache.WriteReq_avg_miss_latency::total 50810.088776                       # average WriteReq miss latency
system.cpu.dcache.WriteReq_avg_mshr_miss_latency::.cpu.data 81584.374015                       # average WriteReq mshr miss latency
system.cpu.dcache.WriteReq_avg_mshr_miss_latency::total 81584.374015                       # average WriteReq mshr miss latency
system.cpu.dcache.WriteReq_hits::.cpu.data       619009                       # number of WriteReq hits
system.cpu.dcache.WriteReq_hits::total         619009                       # number of WriteReq hits
system.cpu.dcache.WriteReq_miss_latency::.cpu.data   4219879493                       # number of WriteReq miss cycles
system.cpu.dcache.WriteReq_miss_latency::total   4219879493                       # number of WriteReq miss cycles
system.cpu.dcache.WriteReq_miss_rate::.cpu.data     0.118297                       # miss rate for WriteReq accesses
system.cpu.dcache.WriteReq_miss_rate::total     0.118297                       # miss rate for WriteReq accesses
system.cpu.dcache.WriteReq_misses::.cpu.data        83052                       # number of WriteReq misses
system.cpu.dcache.WriteReq_misses::total        83052                       # number of WriteReq misses
system.cpu.dcache.WriteReq_mshr_hits::.cpu.data        70483                       # number of WriteReq MSHR hits
system.cpu.dcache.WriteReq_mshr_hits::total        70483                       # number of WriteReq MSHR hits
system.cpu.dcache.WriteReq_mshr_miss_latency::.cpu.data   1025433997                       # number of WriteReq MSHR miss cycles
system.cpu.dcache.WriteReq_mshr_miss_latency::total   1025433997                       # number of WriteReq MSHR miss cycles
system.cpu.dcache.WriteReq_mshr_miss_rate::.cpu.data     0.017903                       # mshr miss rate for WriteReq accesses
system.cpu.dcache.WriteReq_mshr_miss_rate::total     0.017903                       # mshr miss rate for WriteReq accesses
system.cpu.dcache.WriteReq_mshr_misses::.cpu.data        12569                       # number of WriteReq MSHR misses
system.cpu.dcache.WriteReq_mshr_misses::total        12569                       # number of WriteReq MSHR misses
system.cpu.dcache.avg_blocked_cycles::no_mshrs    33.294118                       # average number of cycles each access was blocked
system.cpu.dcache.avg_blocked_cycles::no_targets          nan                       # average number of cycles each access was blocked
system.cpu.dcache.blocked::no_mshrs                17                       # number of cycles access was blocked
system.cpu.dcache.blocked::no_targets               0                       # number of cycles access was blocked
system.cpu.dcache.blocked_cycles::no_mshrs          566                       # number of cycles access was blocked
system.cpu.dcache.blocked_cycles::no_targets            0                       # number of cycles access was blocked
system.cpu.dcache.demand_accesses::.cpu.data      2805228                       # number of demand (read+write) accesses
system.cpu.dcache.demand_accesses::total      2805228                       # number of demand (read+write) accesses
system.cpu.dcache.demand_avg_miss_latency::.cpu.data 43893.617161                       # average overall miss latency
system.cpu.dcache.demand_avg_miss_latency::total 43893.617161                       # average overall miss latency
system.cpu.dcache.demand_avg_mshr_miss_latency::.cpu.data 40047.553174                       # average overall mshr miss latency
system.cpu.dcache.demand_avg_mshr_miss_latency::total 40047.553174                       # average overall mshr miss latency
system.cpu.dcache.demand_hits::.cpu.data      2703125                       # number of demand (read+write) hits
system.cpu.dcache.demand_hits::total          2703125                       # number of demand (read+write) hits
system.cpu.dcache.demand_miss_latency::.cpu.data   4481669993                       # number of demand (read+write) miss cycles
system.cpu.dcache.demand_miss_latency::total   4481669993                       # number of demand (read+write) miss cycles
system.cpu.dcache.demand_miss_rate::.cpu.data     0.036397                       # miss rate for demand accesses
system.cpu.dcache.demand_miss_rate::total     0.036397                       # miss rate for demand accesses
system.cpu.dcache.demand_misses::.cpu.data       102103                       # number of demand (read+write) misses
system.cpu.dcache.demand_misses::total         102103                       # number of demand (read+write) misses
system.cpu.dcache.demand_mshr_hits::.cpu.data        70612                       # number of demand (read+write) MSHR hits
system.cpu.dcache.demand_mshr_hits::total        70612                       # number of demand (read+write) MSHR hits
system.cpu.dcache.demand_mshr_miss_latency::.cpu.data   1261137497                       # number of demand (read+write) MSHR miss cycles
system.cpu.dcache.demand_mshr_miss_latency::total   1261137497                       # number of demand (read+write) MSHR miss cycles
system.cpu.dcache.demand_mshr_miss_rate::.cpu.data     0.011226                       # mshr miss rate for demand accesses
system.cpu.dcache.demand_mshr_miss_rate::total     0.011226                       # mshr miss rate for demand accesses
system.cpu.dcache.demand_mshr_misses::.cpu.data        31491                       # number of demand (read+write) MSHR misses
system.cpu.dcache.demand_mshr_misses::total        31491                       # number of demand (read+write) MSHR misses
system.cpu.dcache.overall_accesses::.cpu.data      2805228                       # number of overall (read+write) accesses
system.cpu.dcache.overall_accesses::total      2805228                       # number of overall (read+write) accesses
system.cpu.dcache.overall_avg_miss_latency::.cpu.data 43893.617161                       # average overall miss latency
system.cpu.dcache.overall_avg_miss_latency::total 43893.617161                       # average overall miss latency
system.cpu.dcache.overall_avg_mshr_miss_latency::.cpu.data 40047.553174                       # average overall mshr miss latency
system.cpu.dcache.overall_avg_mshr_miss_latency::total 40047.553174                       # average overall mshr miss latency
system.cpu.dcache.overall_hits::.cpu.data      2703125                       # number of overall hits
system.cpu.dcache.overall_hits::total         2703125                       # number of overall hits
system.cpu.dcache.overall_miss_latency::.cpu.data   4481669993                       # number of overall miss cycles
system.cpu.dcache.overall_miss_latency::total   4481669993                       # number of overall miss cycles
system.cpu.dcache.overall_miss_rate::.cpu.data     0.036397                       # miss rate for overall accesses
system.cpu.dcache.overall_miss_rate::total     0.036397                       # miss rate for overall accesses
system.cpu.dcache.overall_misses::.cpu.data       102103                       # number of overall misses
system.cpu.dcache.overall_misses::total        102103                       # number of overall misses
system.cpu.dcache.overall_mshr_hits::.cpu.data        70612                       # number of overall MSHR hits
system.cpu.dcache.overall_mshr_hits::total        70612                       # number of overall MSHR hits
system.cpu.dcache.overall_mshr_miss_latency::.cpu.data   1261137497                       # number of overall MSHR miss cycles
system.cpu.dcache.overall_mshr_miss_latency::total   1261137497                       # number of overall MSHR miss cycles
system.cpu.dcache.overall_mshr_miss_rate::.cpu.data     0.011226                       # mshr miss rate for overall accesses
system.cpu.dcache.overall_mshr_miss_rate::total     0.011226                       # mshr miss rate for overall accesses
system.cpu.dcache.overall_mshr_misses::.cpu.data        31491                       # number of overall MSHR misses
system.cpu.dcache.overall_mshr_misses::total        31491                       # number of overall MSHR misses
system.cpu.dcache.pwrStateResidencyTicks::UNDEFINED   4982862500                       # Cumulative time (in ticks) in various power states
system.cpu.dcache.replacements                  30467                       # number of replacements
system.cpu.dcache.tags.age_task_id_blocks_1024::0           49                       # Occupied blocks per task id
system.cpu.dcache.tags.age_task_id_blocks_1024::1          419                       # Occupied blocks per task id
system.cpu.dcache.tags.age_task_id_blocks_1024::2          554                       # Occupied blocks per task id
system.cpu.dcache.tags.age_task_id_blocks_1024::3            2                       # Occupied blocks per task id
system.cpu.dcache.tags.avg_refs             86.839129                       # Average number of references to valid blocks.
system.cpu.dcache.tags.data_accesses          5642019                       # Number of data accesses
system.cpu.dcache.tags.occ_blocks::.cpu.data  1012.247192                       # Average occupied blocks per requestor
system.cpu.dcache.tags.occ_percent::.cpu.data     0.988523                       # Average percentage of cache occupancy
system.cpu.dcache.tags.occ_percent::total     0.988523                       # Average percentage of cache occupancy
system.cpu.dcache.tags.occ_task_id_blocks::1024         1024                       # Occupied blocks per task id
system.cpu.dcache.tags.occ_task_id_percent::1024            1                       # Percentage of cache occupancy per task id
system.cpu.dcache.tags.pwrStateResidencyTicks::UNDEFINED   4982862500                       # Cumulative time (in ticks) in various power states
system.cpu.dcache.tags.sampled_refs             31491                       # Sample count of references to valid blocks.
system.cpu.dcache.tags.tag_accesses           5642019                       # Number of tag accesses
system.cpu.dcache.tags.tagsinuse          1012.247192                       # Cycle average of tags in use
system.cpu.dcache.tags.total_refs             2734651                       # Total number of references to valid blocks.
system.cpu.dcache.tags.warmup_cycle            105000                       # Cycle when the warmup percentage was hit.
system.cpu.dcache.writebacks::.writebacks        30389                       # number of writebacks
system.cpu.dcache.writebacks::total             30389                       # number of writebacks
system.cpu.decode.BlockedCycles               6499562                       # Number of cycles decode is blocked
system.cpu.decode.BranchMispred                   255                       # Number of times decode detected a branch misprediction
system.cpu.decode.BranchResolved              1445206                       # Number of times decode resolved a branch
system.cpu.decode.DecodedInsts               20205907                       # Number of instructions handled by decode
system.cpu.decode.IdleCycles                   895942                       # Number of cycles decode is idle
system.cpu.decode.RunCycles                    176411                       # Number of cycles decode is running
system.cpu.decode.SquashCycles                    692                       # Number of cycles decode is squashing
system.cpu.decode.SquashedInsts                   890                       # Number of squashed instructions handled by decode
system.cpu.decode.UnblockCycles               2350885                       # Number of cycles decode is unblocking
system.cpu.dstage2_mmu.stage2_tlb.accesses            0                       # DTB accesses
system.cpu.dstage2_mmu.stage2_tlb.align_faults            0                       # Number of TLB faults due to alignment restrictions
system.cpu.dstage2_mmu.stage2_tlb.domain_faults            0                       # Number of TLB faults due to domain restrictions
system.cpu.dstage2_mmu.stage2_tlb.flush_entries            0                       # Number of entries that have been flushed from TLB
system.cpu.dstage2_mmu.stage2_tlb.flush_tlb            0                       # Number of times complete TLB was flushed
system.cpu.dstage2_mmu.stage2_tlb.flush_tlb_asid            0                       # Number of times TLB was flushed by ASID
system.cpu.dstage2_mmu.stage2_tlb.flush_tlb_mva            0                       # Number of times TLB was flushed by MVA
system.cpu.dstage2_mmu.stage2_tlb.flush_tlb_mva_asid            0                       # Number of times TLB was flushed by MVA & ASID
system.cpu.dstage2_mmu.stage2_tlb.hits              0                       # DTB hits
system.cpu.dstage2_mmu.stage2_tlb.inst_accesses            0                       # ITB inst accesses
system.cpu.dstage2_mmu.stage2_tlb.inst_hits            0                       # ITB inst hits
system.cpu.dstage2_mmu.stage2_tlb.inst_misses            0                       # ITB inst misses
system.cpu.dstage2_mmu.stage2_tlb.misses            0                       # DTB misses
system.cpu.dstage2_mmu.stage2_tlb.perms_faults            0                       # Number of TLB faults due to permissions restrictions
system.cpu.dstage2_mmu.stage2_tlb.prefetch_faults            0                       # Number of TLB faults due to prefetch
system.cpu.dstage2_mmu.stage2_tlb.read_accesses            0                       # DTB read accesses
system.cpu.dstage2_mmu.stage2_tlb.read_hits            0                       # DTB read hits
system.cpu.dstage2_mmu.stage2_tlb.read_misses            0                       # DTB read misses
system.cpu.dstage2_mmu.stage2_tlb.walker.pwrStateResidencyTicks::UNDEFINED   4982862500                       # Cumulative time (in ticks) in various power states
system.cpu.dstage2_mmu.stage2_tlb.walker.walkRequestOrigin_Requested::Data            0                       # Table walker requests started/completed, data/inst
system.cpu.dstage2_mmu.stage2_tlb.walker.walkRequestOrigin_Requested::Inst            0                       # Table walker requests started/completed, data/inst
system.cpu.dstage2_mmu.stage2_tlb.walker.walkRequestOrigin_Requested::total            0                       # Table walker requests started/completed, data/inst
system.cpu.dstage2_mmu.stage2_tlb.walker.walkRequestOrigin_Completed::Data            0                       # Table walker requests started/completed, data/inst
system.cpu.dstage2_mmu.stage2_tlb.walker.walkRequestOrigin_Completed::Inst            0                       # Table walker requests started/completed, data/inst
system.cpu.dstage2_mmu.stage2_tlb.walker.walkRequestOrigin_Completed::total            0                       # Table walker requests started/completed, data/inst
system.cpu.dstage2_mmu.stage2_tlb.walker.walkRequestOrigin::total            0                       # Table walker requests started/completed, data/inst
system.cpu.dstage2_mmu.stage2_tlb.walker.walks            0                       # Table walker walks requested
system.cpu.dstage2_mmu.stage2_tlb.write_accesses            0                       # DTB write accesses
system.cpu.dstage2_mmu.stage2_tlb.write_hits            0                       # DTB write hits
system.cpu.dstage2_mmu.stage2_tlb.write_misses            0                       # DTB write misses
system.cpu.dtb.accesses                             0                       # DTB accesses
system.cpu.dtb.align_faults                         0                       # Number of TLB faults due to alignment restrictions
system.cpu.dtb.domain_faults                        0                       # Number of TLB faults due to domain restrictions
system.cpu.dtb.flush_entries                        0                       # Number of entries that have been flushed from TLB
system.cpu.dtb.flush_tlb                            0                       # Number of times complete TLB was flushed
system.cpu.dtb.flush_tlb_asid                       0                       # Number of times TLB was flushed by ASID
system.cpu.dtb.flush_tlb_mva                        0                       # Number of times TLB was flushed by MVA
system.cpu.dtb.flush_tlb_mva_asid                   0                       # Number of times TLB was flushed by MVA & ASID
system.cpu.dtb.hits                                 0                       # DTB hits
system.cpu.dtb.inst_accesses                        0                       # ITB inst accesses
system.cpu.dtb.inst_hits                            0                       # ITB inst hits
system.cpu.dtb.inst_misses                          0                       # ITB inst misses
system.cpu.dtb.misses                               0                       # DTB misses
system.cpu.dtb.perms_faults                         0                       # Number of TLB faults due to permissions restrictions
system.cpu.dtb.prefetch_faults                      0                       # Number of TLB faults due to prefetch
system.cpu.dtb.read_accesses                        0                       # DTB read accesses
system.cpu.dtb.read_hits                            0                       # DTB read hits
system.cpu.dtb.read_misses                          0                       # DTB read misses
system.cpu.dtb.walker.pwrStateResidencyTicks::UNDEFINED   4982862500                       # Cumulative time (in ticks) in various power states
system.cpu.dtb.walker.walkRequestOrigin_Requested::Data            0                       # Table walker requests started/completed, data/inst
system.cpu.dtb.walker.walkRequestOrigin_Requested::Inst            0                       # Table walker requests started/completed, data/inst
system.cpu.dtb.walker.walkRequestOrigin_Requested::total            0                       # Table walker requests started/completed, data/inst
system.cpu.dtb.walker.walkRequestOrigin_Completed::Data            0                       # Table walker requests started/completed, data/inst
system.cpu.dtb.walker.walkRequestOrigin_Completed::Inst            0                       # Table walker requests started/completed, data/inst
system.cpu.dtb.walker.walkRequestOrigin_Completed::total            0                       # Table walker requests started/completed, data/inst
system.cpu.dtb.walker.walkRequestOrigin::total            0                       # Table walker requests started/completed, data/inst
system.cpu.dtb.walker.walks                         0                       # Table walker walks requested
system.cpu.dtb.write_accesses                       0                       # DTB write accesses
system.cpu.dtb.write_hits                           0                       # DTB write hits
system.cpu.dtb.write_misses                         0                       # DTB write misses
system.cpu.fetch.Branches                     3361941                       # Number of branches that fetch encountered
system.cpu.fetch.CacheLines                   3004954                       # Number of cache lines fetched
system.cpu.fetch.Cycles                       6906552                       # Number of cycles fetch has run and was not squashing or blocked
system.cpu.fetch.IcacheSquashes                   588                       # Number of outstanding Icache misses that were squashed
system.cpu.fetch.IcacheWaitRetryStallCycles           45                       # Number of stall cycles due to full MSHR
system.cpu.fetch.Insts                       20211128                       # Number of instructions fetch has processed
system.cpu.fetch.MiscStallCycles                   46                       # Number of cycles fetch has spent waiting on interrupts, or bad addresses, or out of MSHRs
system.cpu.fetch.PendingTrapStallCycles           326                       # Number of stall cycles due to pending traps
system.cpu.fetch.SquashCycles                    1884                       # Number of cycles fetch has spent squashing
system.cpu.fetch.branchRate                  0.337350                       # Number of branch fetches per cycle
system.cpu.fetch.icacheStallCycles            3015581                       # Number of cycles fetch is stalled on an Icache miss
system.cpu.fetch.predictedBranches            1946057                       # Number of branches that fetch has predicted taken
system.cpu.fetch.rate                        2.028064                       # Number of inst fetches per cycle
system.cpu.fetch.rateDist::samples            9923492                       # Number of instructions fetched each cycle (Total)
system.cpu.fetch.rateDist::mean              2.037100                       # Number of instructions fetched each cycle (Total)
system.cpu.fetch.rateDist::stdev             2.713988                       # Number of instructions fetched each cycle (Total)
system.cpu.fetch.rateDist::underflows               0      0.00%      0.00% # Number of instructions fetched each cycle (Total)
system.cpu.fetch.rateDist::0                  5419511     54.61%     54.61% # Number of instructions fetched each cycle (Total)
system.cpu.fetch.rateDist::1                   540185      5.44%     60.06% # Number of instructions fetched each cycle (Total)
system.cpu.fetch.rateDist::2                   535630      5.40%     65.45% # Number of instructions fetched each cycle (Total)
system.cpu.fetch.rateDist::3                   653064      6.58%     72.04% # Number of instructions fetched each cycle (Total)
system.cpu.fetch.rateDist::4                   538063      5.42%     77.46% # Number of instructions fetched each cycle (Total)
system.cpu.fetch.rateDist::5                   587973      5.93%     83.38% # Number of instructions fetched each cycle (Total)
system.cpu.fetch.rateDist::6                   733637      7.39%     90.78% # Number of instructions fetched each cycle (Total)
system.cpu.fetch.rateDist::7                   172866      1.74%     92.52% # Number of instructions fetched each cycle (Total)
system.cpu.fetch.rateDist::8                   742563      7.48%    100.00% # Number of instructions fetched each cycle (Total)
system.cpu.fetch.rateDist::overflows                0      0.00%    100.00% # Number of instructions fetched each cycle (Total)
system.cpu.fetch.rateDist::min_value                0                       # Number of instructions fetched each cycle (Total)
system.cpu.fetch.rateDist::max_value                8                       # Number of instructions fetched each cycle (Total)
system.cpu.fetch.rateDist::total              9923492                       # Number of instructions fetched each cycle (Total)
system.cpu.icache.ReadReq_accesses::.cpu.inst      3004953                       # number of ReadReq accesses(hits+misses)
system.cpu.icache.ReadReq_accesses::total      3004953                       # number of ReadReq accesses(hits+misses)
system.cpu.icache.ReadReq_avg_miss_latency::.cpu.inst 70472.257104                       # average ReadReq miss latency
system.cpu.icache.ReadReq_avg_miss_latency::total 70472.257104                       # average ReadReq miss latency
system.cpu.icache.ReadReq_avg_mshr_miss_latency::.cpu.inst 73678.379613                       # average ReadReq mshr miss latency
system.cpu.icache.ReadReq_avg_mshr_miss_latency::total 73678.379613                       # average ReadReq mshr miss latency
system.cpu.icache.ReadReq_hits::.cpu.inst      3004214                       # number of ReadReq hits
system.cpu.icache.ReadReq_hits::total         3004214                       # number of ReadReq hits
system.cpu.icache.ReadReq_miss_latency::.cpu.inst     52078998                       # number of ReadReq miss cycles
system.cpu.icache.ReadReq_miss_latency::total     52078998                       # number of ReadReq miss cycles
system.cpu.icache.ReadReq_miss_rate::.cpu.inst     0.000246                       # miss rate for ReadReq accesses
system.cpu.icache.ReadReq_miss_rate::total     0.000246                       # miss rate for ReadReq accesses
system.cpu.icache.ReadReq_misses::.cpu.inst          739                       # number of ReadReq misses
system.cpu.icache.ReadReq_misses::total           739                       # number of ReadReq misses
system.cpu.icache.ReadReq_mshr_hits::.cpu.inst          170                       # number of ReadReq MSHR hits
system.cpu.icache.ReadReq_mshr_hits::total          170                       # number of ReadReq MSHR hits
system.cpu.icache.ReadReq_mshr_miss_latency::.cpu.inst     41922998                       # number of ReadReq MSHR miss cycles
system.cpu.icache.ReadReq_mshr_miss_latency::total     41922998                       # number of ReadReq MSHR miss cycles
system.cpu.icache.ReadReq_mshr_miss_rate::.cpu.inst     0.000189                       # mshr miss rate for ReadReq accesses
system.cpu.icache.ReadReq_mshr_miss_rate::total     0.000189                       # mshr miss rate for ReadReq accesses
system.cpu.icache.ReadReq_mshr_misses::.cpu.inst          569                       # number of ReadReq MSHR misses
system.cpu.icache.ReadReq_mshr_misses::total          569                       # number of ReadReq MSHR misses
system.cpu.icache.avg_blocked_cycles::no_mshrs    51.818182                       # average number of cycles each access was blocked
system.cpu.icache.avg_blocked_cycles::no_targets          nan                       # average number of cycles each access was blocked
system.cpu.icache.blocked::no_mshrs                11                       # number of cycles access was blocked
system.cpu.icache.blocked::no_targets               0                       # number of cycles access was blocked
system.cpu.icache.blocked_cycles::no_mshrs          570                       # number of cycles access was blocked
system.cpu.icache.blocked_cycles::no_targets            0                       # number of cycles access was blocked
system.cpu.icache.demand_accesses::.cpu.inst      3004953                       # number of demand (read+write) accesses
system.cpu.icache.demand_accesses::total      3004953                       # number of demand (read+write) accesses
system.cpu.icache.demand_avg_miss_latency::.cpu.inst 70472.257104                       # average overall miss latency
system.cpu.icache.demand_avg_miss_latency::total 70472.257104                       # average overall miss latency
system.cpu.icache.demand_avg_mshr_miss_latency::.cpu.inst 73678.379613                       # average overall mshr miss latency
system.cpu.icache.demand_avg_mshr_miss_latency::total 73678.379613                       # average overall mshr miss latency
system.cpu.icache.demand_hits::.cpu.inst      3004214                       # number of demand (read+write) hits
system.cpu.icache.demand_hits::total          3004214                       # number of demand (read+write) hits
system.cpu.icache.demand_miss_latency::.cpu.inst     52078998                       # number of demand (read+write) miss cycles
system.cpu.icache.demand_miss_latency::total     52078998                       # number of demand (read+write) miss cycles
system.cpu.icache.demand_miss_rate::.cpu.inst     0.000246                       # miss rate for demand accesses
system.cpu.icache.demand_miss_rate::total     0.000246                       # miss rate for demand accesses
system.cpu.icache.demand_misses::.cpu.inst          739                       # number of demand (read+write) misses
system.cpu.icache.demand_misses::total            739                       # number of demand (read+write) misses
system.cpu.icache.demand_mshr_hits::.cpu.inst          170                       # number of demand (read+write) MSHR hits
system.cpu.icache.demand_mshr_hits::total          170                       # number of demand (read+write) MSHR hits
system.cpu.icache.demand_mshr_miss_latency::.cpu.inst     41922998                       # number of demand (read+write) MSHR miss cycles
system.cpu.icache.demand_mshr_miss_latency::total     41922998                       # number of demand (read+write) MSHR miss cycles
system.cpu.icache.demand_mshr_miss_rate::.cpu.inst     0.000189                       # mshr miss rate for demand accesses
system.cpu.icache.demand_mshr_miss_rate::total     0.000189                       # mshr miss rate for demand accesses
system.cpu.icache.demand_mshr_misses::.cpu.inst          569                       # number of demand (read+write) MSHR misses
system.cpu.icache.demand_mshr_misses::total          569                       # number of demand (read+write) MSHR misses
system.cpu.icache.overall_accesses::.cpu.inst      3004953                       # number of overall (read+write) accesses
system.cpu.icache.overall_accesses::total      3004953                       # number of overall (read+write) accesses
system.cpu.icache.overall_avg_miss_latency::.cpu.inst 70472.257104                       # average overall miss latency
system.cpu.icache.overall_avg_miss_latency::total 70472.257104                       # average overall miss latency
system.cpu.icache.overall_avg_mshr_miss_latency::.cpu.inst 73678.379613                       # average overall mshr miss latency
system.cpu.icache.overall_avg_mshr_miss_latency::total 73678.379613                       # average overall mshr miss latency
system.cpu.icache.overall_hits::.cpu.inst      3004214                       # number of overall hits
system.cpu.icache.overall_hits::total         3004214                       # number of overall hits
system.cpu.icache.overall_miss_latency::.cpu.inst     52078998                       # number of overall miss cycles
system.cpu.icache.overall_miss_latency::total     52078998                       # number of overall miss cycles
system.cpu.icache.overall_miss_rate::.cpu.inst     0.000246                       # miss rate for overall accesses
system.cpu.icache.overall_miss_rate::total     0.000246                       # miss rate for overall accesses
system.cpu.icache.overall_misses::.cpu.inst          739                       # number of overall misses
system.cpu.icache.overall_misses::total           739                       # number of overall misses
system.cpu.icache.overall_mshr_hits::.cpu.inst          170                       # number of overall MSHR hits
system.cpu.icache.overall_mshr_hits::total          170                       # number of overall MSHR hits
system.cpu.icache.overall_mshr_miss_latency::.cpu.inst     41922998                       # number of overall MSHR miss cycles
system.cpu.icache.overall_mshr_miss_latency::total     41922998                       # number of overall MSHR miss cycles
system.cpu.icache.overall_mshr_miss_rate::.cpu.inst     0.000189                       # mshr miss rate for overall accesses
system.cpu.icache.overall_mshr_miss_rate::total     0.000189                       # mshr miss rate for overall accesses
system.cpu.icache.overall_mshr_misses::.cpu.inst          569                       # number of overall MSHR misses
system.cpu.icache.overall_mshr_misses::total          569                       # number of overall MSHR misses
system.cpu.icache.pwrStateResidencyTicks::UNDEFINED   4982862500                       # Cumulative time (in ticks) in various power states
system.cpu.icache.replacements                    165                       # number of replacements
system.cpu.icache.tags.age_task_id_blocks_1024::0          176                       # Occupied blocks per task id
system.cpu.icache.tags.age_task_id_blocks_1024::1           70                       # Occupied blocks per task id
system.cpu.icache.tags.age_task_id_blocks_1024::3          158                       # Occupied blocks per task id
system.cpu.icache.tags.avg_refs           5280.813708                       # Average number of references to valid blocks.
system.cpu.icache.tags.data_accesses          6010475                       # Number of data accesses
system.cpu.icache.tags.occ_blocks::.cpu.inst   253.515685                       # Average occupied blocks per requestor
system.cpu.icache.tags.occ_percent::.cpu.inst     0.495148                       # Average percentage of cache occupancy
system.cpu.icache.tags.occ_percent::total     0.495148                       # Average percentage of cache occupancy
system.cpu.icache.tags.occ_task_id_blocks::1024          404                       # Occupied blocks per task id
system.cpu.icache.tags.occ_task_id_percent::1024     0.789062                       # Percentage of cache occupancy per task id
system.cpu.icache.tags.pwrStateResidencyTicks::UNDEFINED   4982862500                       # Cumulative time (in ticks) in various power states
system.cpu.icache.tags.sampled_refs               569                       # Sample count of references to valid blocks.
system.cpu.icache.tags.tag_accesses           6010475                       # Number of tag accesses
system.cpu.icache.tags.tagsinuse           253.515685                       # Cycle average of tags in use
system.cpu.icache.tags.total_refs             3004783                       # Total number of references to valid blocks.
system.cpu.icache.tags.warmup_cycle             87500                       # Cycle when the warmup percentage was hit.
system.cpu.icache.writebacks::.writebacks          165                       # number of writebacks
system.cpu.icache.writebacks::total               165                       # number of writebacks
system.cpu.idleCycles                           42234                       # Total number of cycles that the CPU has spent unscheduled due to idling
system.cpu.iew.branchMispredicts                  681                       # Number of branch mispredicts detected at execute
system.cpu.iew.exec_branches                  3359290                       # Number of branches executed
system.cpu.iew.exec_nop                             0                       # number of nop insts executed
system.cpu.iew.exec_rate                     2.026810                       # Inst execution rate
system.cpu.iew.exec_refs                      3506037                       # number of memory reference insts executed
system.cpu.iew.exec_stores                     702518                       # Number of stores executed
system.cpu.iew.exec_swp                             0                       # number of swp insts executed
system.cpu.iew.iewBlockCycles                  417520                       # Number of cycles IEW is blocking
system.cpu.iew.iewDispLoadInsts               2804014                       # Number of dispatched load instructions
system.cpu.iew.iewDispNonSpecInsts                 35                       # Number of dispatched non-speculative instructions
system.cpu.iew.iewDispSquashedInsts               176                       # Number of squashed instructions skipped by dispatch
system.cpu.iew.iewDispStoreInsts               702891                       # Number of dispatched store instructions
system.cpu.iew.iewDispatchedInsts            20201752                       # Number of instructions dispatched to IQ
system.cpu.iew.iewExecLoadInsts               2803519                       # Number of load instructions executed
system.cpu.iew.iewExecSquashedInsts               715                       # Number of squashed instructions skipped in execute
system.cpu.iew.iewExecutedInsts              20198630                       # Number of executed instructions
system.cpu.iew.iewIQFullEvents                   4042                       # Number of times the IQ has become full, causing a stall
system.cpu.iew.iewIdleCycles                        0                       # Number of cycles IEW is idle
system.cpu.iew.iewLSQFullEvents                    41                       # Number of times the LSQ has become full, causing a stall
system.cpu.iew.iewSquashCycles                    692                       # Number of cycles IEW is squashing
system.cpu.iew.iewUnblockCycles                  7634                       # Number of cycles IEW is unblocking
system.cpu.iew.lsq.thread0.blockedLoads             0                       # Number of blocked loads due to partial load-store forwarding
system.cpu.iew.lsq.thread0.cacheBlocked            12                       # Number of times an access to memory failed due to the cache being blocked
system.cpu.iew.lsq.thread0.forwLoads           700127                       # Number of loads that had data forwarded from stores
system.cpu.iew.lsq.thread0.ignoredResponses           16                       # Number of memory responses ignored because the instruction is squashed
system.cpu.iew.lsq.thread0.invAddrLoads             0                       # Number of loads ignored due to an invalid address
system.cpu.iew.lsq.thread0.invAddrSwpfs             0                       # Number of software prefetches ignored due to an invalid address
system.cpu.iew.lsq.thread0.memOrderViolation           41                       # Number of memory ordering violations
system.cpu.iew.lsq.thread0.rescheduledLoads           24                       # Number of loads that were rescheduled
system.cpu.iew.lsq.thread0.squashedLoads         1530                       # Number of loads squashed
system.cpu.iew.lsq.thread0.squashedStores          730                       # Number of stores squashed
system.cpu.iew.memOrderViolationEvents             41                       # Number of memory order violations
system.cpu.iew.predictedNotTakenIncorrect          475                       # Number of branches that were predicted not taken incorrectly
system.cpu.iew.predictedTakenIncorrect            206                       # Number of branches that were predicted taken incorrectly
system.cpu.iew.wb_consumers                  35790313                       # num instructions consuming a value
system.cpu.iew.wb_count                      20198076                       # cumulative count of insts written-back
system.cpu.iew.wb_fanout                     0.431472                       # average fanout of values written-back
system.cpu.iew.wb_producers                  15442516                       # num instructions producing a value
system.cpu.iew.wb_rate                       2.026754                       # insts written-back per cycle
system.cpu.iew.wb_sent                       20198179                       # cumulative count of insts sent to commit
system.cpu.int_regfile_reads                 25141915                       # number of integer regfile reads
system.cpu.int_regfile_writes                14178717                       # number of integer regfile writes
system.cpu.ipc                               2.026224                       # IPC: Instructions Per Cycle
system.cpu.ipc_total                         2.026224                       # IPC: Total IPC of All Threads
system.cpu.iq.FU_type_0::No_OpClass                 9      0.00%      0.00% # Type of FU issued
system.cpu.iq.FU_type_0::IntAlu              16692894     82.64%     82.64% # Type of FU issued
system.cpu.iq.FU_type_0::IntMult                   66      0.00%     82.64% # Type of FU issued
system.cpu.iq.FU_type_0::IntDiv                     0      0.00%     82.64% # Type of FU issued
system.cpu.iq.FU_type_0::FloatAdd                   0      0.00%     82.64% # Type of FU issued
system.cpu.iq.FU_type_0::FloatCmp                   0      0.00%     82.64% # Type of FU issued
system.cpu.iq.FU_type_0::FloatCvt                   0      0.00%     82.64% # Type of FU issued
system.cpu.iq.FU_type_0::FloatMult                  0      0.00%     82.64% # Type of FU issued
system.cpu.iq.FU_type_0::FloatMultAcc               0      0.00%     82.64% # Type of FU issued
system.cpu.iq.FU_type_0::FloatDiv                   0      0.00%     82.64% # Type of FU issued
system.cpu.iq.FU_type_0::FloatMisc                  0      0.00%     82.64% # Type of FU issued
system.cpu.iq.FU_type_0::FloatSqrt                  0      0.00%     82.64% # Type of FU issued
system.cpu.iq.FU_type_0::SimdAdd                    0      0.00%     82.64% # Type of FU issued
system.cpu.iq.FU_type_0::SimdAddAcc                 0      0.00%     82.64% # Type of FU issued
system.cpu.iq.FU_type_0::SimdAlu                    0      0.00%     82.64% # Type of FU issued
system.cpu.iq.FU_type_0::SimdCmp                    0      0.00%     82.64% # Type of FU issued
system.cpu.iq.FU_type_0::SimdCvt                    0      0.00%     82.64% # Type of FU issued
system.cpu.iq.FU_type_0::SimdMisc                   0      0.00%     82.64% # Type of FU issued
system.cpu.iq.FU_type_0::SimdMult                   0      0.00%     82.64% # Type of FU issued
system.cpu.iq.FU_type_0::SimdMultAcc                0      0.00%     82.64% # Type of FU issued
system.cpu.iq.FU_type_0::SimdShift                  0      0.00%     82.64% # Type of FU issued
system.cpu.iq.FU_type_0::SimdShiftAcc               0      0.00%     82.64% # Type of FU issued
system.cpu.iq.FU_type_0::SimdDiv                    0      0.00%     82.64% # Type of FU issued
system.cpu.iq.FU_type_0::SimdSqrt                   0      0.00%     82.64% # Type of FU issued
system.cpu.iq.FU_type_0::SimdFloatAdd               0      0.00%     82.64% # Type of FU issued
system.cpu.iq.FU_type_0::SimdFloatAlu               0      0.00%     82.64% # Type of FU issued
system.cpu.iq.FU_type_0::SimdFloatCmp               0      0.00%     82.64% # Type of FU issued
system.cpu.iq.FU_type_0::SimdFloatCvt               0      0.00%     82.64% # Type of FU issued
system.cpu.iq.FU_type_0::SimdFloatDiv               0      0.00%     82.64% # Type of FU issued
system.cpu.iq.FU_type_0::SimdFloatMisc              1      0.00%     82.64% # Type of FU issued
system.cpu.iq.FU_type_0::SimdFloatMult              0      0.00%     82.64% # Type of FU issued
system.cpu.iq.FU_type_0::SimdFloatMultAcc            0      0.00%     82.64% # Type of FU issued
system.cpu.iq.FU_type_0::SimdFloatSqrt              0      0.00%     82.64% # Type of FU issued
system.cpu.iq.FU_type_0::SimdReduceAdd              0      0.00%     82.64% # Type of FU issued
system.cpu.iq.FU_type_0::SimdReduceAlu              0      0.00%     82.64% # Type of FU issued
system.cpu.iq.FU_type_0::SimdReduceCmp              0      0.00%     82.64% # Type of FU issued
system.cpu.iq.FU_type_0::SimdFloatReduceAdd            0      0.00%     82.64% # Type of FU issued
system.cpu.iq.FU_type_0::SimdFloatReduceCmp            0      0.00%     82.64% # Type of FU issued
system.cpu.iq.FU_type_0::SimdAes                    0      0.00%     82.64% # Type of FU issued
system.cpu.iq.FU_type_0::SimdAesMix                 0      0.00%     82.64% # Type of FU issued
system.cpu.iq.FU_type_0::SimdSha1Hash               0      0.00%     82.64% # Type of FU issued
system.cpu.iq.FU_type_0::SimdSha1Hash2              0      0.00%     82.64% # Type of FU issued
system.cpu.iq.FU_type_0::SimdSha256Hash             0      0.00%     82.64% # Type of FU issued
system.cpu.iq.FU_type_0::SimdSha256Hash2            0      0.00%     82.64% # Type of FU issued
system.cpu.iq.FU_type_0::SimdShaSigma2              0      0.00%     82.64% # Type of FU issued
system.cpu.iq.FU_type_0::SimdShaSigma3              0      0.00%     82.64% # Type of FU issued
system.cpu.iq.FU_type_0::SimdPredAlu                0      0.00%     82.64% # Type of FU issued
system.cpu.iq.FU_type_0::MemRead              2803776     13.88%     96.52% # Type of FU issued
system.cpu.iq.FU_type_0::MemWrite              702599      3.48%    100.00% # Type of FU issued
system.cpu.iq.FU_type_0::FloatMemRead               0      0.00%    100.00% # Type of FU issued
system.cpu.iq.FU_type_0::FloatMemWrite              0      0.00%    100.00% # Type of FU issued
system.cpu.iq.FU_type_0::IprAccess                  0      0.00%    100.00% # Type of FU issued
system.cpu.iq.FU_type_0::InstPrefetch               0      0.00%    100.00% # Type of FU issued
system.cpu.iq.FU_type_0::total               20199345                       # Type of FU issued
system.cpu.iq.fp_alu_accesses                       0                       # Number of floating point alu accesses
system.cpu.iq.fp_inst_queue_reads                   0                       # Number of floating instruction queue reads
system.cpu.iq.fp_inst_queue_wakeup_accesses            0                       # Number of floating instruction queue wakeup accesses
system.cpu.iq.fp_inst_queue_writes                  0                       # Number of floating instruction queue writes
system.cpu.iq.fu_busy_cnt                         190                       # FU busy when requested
system.cpu.iq.fu_busy_rate                   0.000009                       # FU busy rate (busy events/executed inst)
system.cpu.iq.fu_full::No_OpClass                   0      0.00%      0.00% # attempts to use FU when none available
system.cpu.iq.fu_full::IntAlu                       1      0.53%      0.53% # attempts to use FU when none available
system.cpu.iq.fu_full::IntMult                      0      0.00%      0.53% # attempts to use FU when none available
system.cpu.iq.fu_full::IntDiv                       0      0.00%      0.53% # attempts to use FU when none available
system.cpu.iq.fu_full::FloatAdd                     0      0.00%      0.53% # attempts to use FU when none available
system.cpu.iq.fu_full::FloatCmp                     0      0.00%      0.53% # attempts to use FU when none available
system.cpu.iq.fu_full::FloatCvt                     0      0.00%      0.53% # attempts to use FU when none available
system.cpu.iq.fu_full::FloatMult                    0      0.00%      0.53% # attempts to use FU when none available
system.cpu.iq.fu_full::FloatMultAcc                 0      0.00%      0.53% # attempts to use FU when none available
system.cpu.iq.fu_full::FloatDiv                     0      0.00%      0.53% # attempts to use FU when none available
system.cpu.iq.fu_full::FloatMisc                    0      0.00%      0.53% # attempts to use FU when none available
system.cpu.iq.fu_full::FloatSqrt                    0      0.00%      0.53% # attempts to use FU when none available
system.cpu.iq.fu_full::SimdAdd                      0      0.00%      0.53% # attempts to use FU when none available
system.cpu.iq.fu_full::SimdAddAcc                   0      0.00%      0.53% # attempts to use FU when none available
system.cpu.iq.fu_full::SimdAlu                      0      0.00%      0.53% # attempts to use FU when none available
system.cpu.iq.fu_full::SimdCmp                      0      0.00%      0.53% # attempts to use FU when none available
system.cpu.iq.fu_full::SimdCvt                      0      0.00%      0.53% # attempts to use FU when none available
system.cpu.iq.fu_full::SimdMisc                     0      0.00%      0.53% # attempts to use FU when none available
system.cpu.iq.fu_full::SimdMult                     0      0.00%      0.53% # attempts to use FU when none available
system.cpu.iq.fu_full::SimdMultAcc                  0      0.00%      0.53% # attempts to use FU when none available
system.cpu.iq.fu_full::SimdShift                    0      0.00%      0.53% # attempts to use FU when none available
system.cpu.iq.fu_full::SimdShiftAcc                 0      0.00%      0.53% # attempts to use FU when none available
system.cpu.iq.fu_full::SimdDiv                      0      0.00%      0.53% # attempts to use FU when none available
system.cpu.iq.fu_full::SimdSqrt                     0      0.00%      0.53% # attempts to use FU when none available
system.cpu.iq.fu_full::SimdFloatAdd                 0      0.00%      0.53% # attempts to use FU when none available
system.cpu.iq.fu_full::SimdFloatAlu                 0      0.00%      0.53% # attempts to use FU when none available
system.cpu.iq.fu_full::SimdFloatCmp                 0      0.00%      0.53% # attempts to use FU when none available
system.cpu.iq.fu_full::SimdFloatCvt                 0      0.00%      0.53% # attempts to use FU when none available
system.cpu.iq.fu_full::SimdFloatDiv                 0      0.00%      0.53% # attempts to use FU when none available
system.cpu.iq.fu_full::SimdFloatMisc                0      0.00%      0.53% # attempts to use FU when none available
system.cpu.iq.fu_full::SimdFloatMult                0      0.00%      0.53% # attempts to use FU when none available
system.cpu.iq.fu_full::SimdFloatMultAcc             0      0.00%      0.53% # attempts to use FU when none available
system.cpu.iq.fu_full::SimdFloatSqrt                0      0.00%      0.53% # attempts to use FU when none available
system.cpu.iq.fu_full::SimdReduceAdd                0      0.00%      0.53% # attempts to use FU when none available
system.cpu.iq.fu_full::SimdReduceAlu                0      0.00%      0.53% # attempts to use FU when none available
system.cpu.iq.fu_full::SimdReduceCmp                0      0.00%      0.53% # attempts to use FU when none available
system.cpu.iq.fu_full::SimdFloatReduceAdd            0      0.00%      0.53% # attempts to use FU when none available
system.cpu.iq.fu_full::SimdFloatReduceCmp            0      0.00%      0.53% # attempts to use FU when none available
system.cpu.iq.fu_full::SimdAes                      0      0.00%      0.53% # attempts to use FU when none available
system.cpu.iq.fu_full::SimdAesMix                   0      0.00%      0.53% # attempts to use FU when none available
system.cpu.iq.fu_full::SimdSha1Hash                 0      0.00%      0.53% # attempts to use FU when none available
system.cpu.iq.fu_full::SimdSha1Hash2                0      0.00%      0.53% # attempts to use FU when none available
system.cpu.iq.fu_full::SimdSha256Hash               0      0.00%      0.53% # attempts to use FU when none available
system.cpu.iq.fu_full::SimdSha256Hash2              0      0.00%      0.53% # attempts to use FU when none available
system.cpu.iq.fu_full::SimdShaSigma2                0      0.00%      0.53% # attempts to use FU when none available
system.cpu.iq.fu_full::SimdShaSigma3                0      0.00%      0.53% # attempts to use FU when none available
system.cpu.iq.fu_full::SimdPredAlu                  0      0.00%      0.53% # attempts to use FU when none available
system.cpu.iq.fu_full::MemRead                     64     33.68%     34.21% # attempts to use FU when none available
system.cpu.iq.fu_full::MemWrite                   125     65.79%    100.00% # attempts to use FU when none available
system.cpu.iq.fu_full::FloatMemRead                 0      0.00%    100.00% # attempts to use FU when none available
system.cpu.iq.fu_full::FloatMemWrite                0      0.00%    100.00% # attempts to use FU when none available
system.cpu.iq.fu_full::IprAccess                    0      0.00%    100.00% # attempts to use FU when none available
system.cpu.iq.fu_full::InstPrefetch                 0      0.00%    100.00% # attempts to use FU when none available
system.cpu.iq.int_alu_accesses               20199526                       # Number of integer alu accesses
system.cpu.iq.int_inst_queue_reads           50322382                       # Number of integer instruction queue reads
system.cpu.iq.int_inst_queue_wakeup_accesses     20198076                       # Number of integer instruction queue wakeup accesses
system.cpu.iq.int_inst_queue_writes          20208685                       # Number of integer instruction queue writes
system.cpu.iq.iqInstsAdded                   20201699                       # Number of instructions added to the IQ (excludes non-spec)
system.cpu.iq.iqInstsIssued                  20199345                       # Number of instructions issued
system.cpu.iq.iqNonSpecInstsAdded                  53                       # Number of non-speculative instructions added to the IQ
system.cpu.iq.iqSquashedInstsExamined            6893                       # Number of squashed instructions iterated over during squash; mainly for profiling
system.cpu.iq.iqSquashedInstsIssued                10                       # Number of squashed instructions issued
system.cpu.iq.iqSquashedNonSpecRemoved              7                       # Number of squashed non-spec instructions that were removed
system.cpu.iq.iqSquashedOperandsExamined        15641                       # Number of squashed operands that are examined and possibly removed from graph
system.cpu.iq.issued_per_cycle::samples       9923492                       # Number of insts issued each cycle
system.cpu.iq.issued_per_cycle::mean         2.035508                       # Number of insts issued each cycle
system.cpu.iq.issued_per_cycle::stdev        1.364786                       # Number of insts issued each cycle
system.cpu.iq.issued_per_cycle::underflows            0      0.00%      0.00% # Number of insts issued each cycle
system.cpu.iq.issued_per_cycle::0              877404      8.84%      8.84% # Number of insts issued each cycle
system.cpu.iq.issued_per_cycle::1             3237176     32.62%     41.46% # Number of insts issued each cycle
system.cpu.iq.issued_per_cycle::2             2778307     28.00%     69.46% # Number of insts issued each cycle
system.cpu.iq.issued_per_cycle::3             1397293     14.08%     83.54% # Number of insts issued each cycle
system.cpu.iq.issued_per_cycle::4             1136910     11.46%     95.00% # Number of insts issued each cycle
system.cpu.iq.issued_per_cycle::5              336804      3.39%     98.39% # Number of insts issued each cycle
system.cpu.iq.issued_per_cycle::6              135183      1.36%     99.75% # Number of insts issued each cycle
system.cpu.iq.issued_per_cycle::7               24402      0.25%    100.00% # Number of insts issued each cycle
system.cpu.iq.issued_per_cycle::8                  13      0.00%    100.00% # Number of insts issued each cycle
system.cpu.iq.issued_per_cycle::overflows            0      0.00%    100.00% # Number of insts issued each cycle
system.cpu.iq.issued_per_cycle::min_value            0                       # Number of insts issued each cycle
system.cpu.iq.issued_per_cycle::max_value            8                       # Number of insts issued each cycle
system.cpu.iq.issued_per_cycle::total         9923492                       # Number of insts issued each cycle
system.cpu.iq.rate                           2.026881                       # Inst issue rate
system.cpu.iq.vec_alu_accesses                      0                       # Number of vector alu accesses
system.cpu.iq.vec_inst_queue_reads                  0                       # Number of vector instruction queue reads
system.cpu.iq.vec_inst_queue_wakeup_accesses            0                       # Number of vector instruction queue wakeup accesses
system.cpu.iq.vec_inst_queue_writes                 0                       # Number of vector instruction queue writes
system.cpu.istage2_mmu.stage2_tlb.accesses            0                       # DTB accesses
system.cpu.istage2_mmu.stage2_tlb.align_faults            0                       # Number of TLB faults due to alignment restrictions
system.cpu.istage2_mmu.stage2_tlb.domain_faults            0                       # Number of TLB faults due to domain restrictions
system.cpu.istage2_mmu.stage2_tlb.flush_entries            0                       # Number of entries that have been flushed from TLB
system.cpu.istage2_mmu.stage2_tlb.flush_tlb            0                       # Number of times complete TLB was flushed
system.cpu.istage2_mmu.stage2_tlb.flush_tlb_asid            0                       # Number of times TLB was flushed by ASID
system.cpu.istage2_mmu.stage2_tlb.flush_tlb_mva            0                       # Number of times TLB was flushed by MVA
system.cpu.istage2_mmu.stage2_tlb.flush_tlb_mva_asid            0                       # Number of times TLB was flushed by MVA & ASID
system.cpu.istage2_mmu.stage2_tlb.hits              0                       # DTB hits
system.cpu.istage2_mmu.stage2_tlb.inst_accesses            0                       # ITB inst accesses
system.cpu.istage2_mmu.stage2_tlb.inst_hits            0                       # ITB inst hits
system.cpu.istage2_mmu.stage2_tlb.inst_misses            0                       # ITB inst misses
system.cpu.istage2_mmu.stage2_tlb.misses            0                       # DTB misses
system.cpu.istage2_mmu.stage2_tlb.perms_faults            0                       # Number of TLB faults due to permissions restrictions
system.cpu.istage2_mmu.stage2_tlb.prefetch_faults            0                       # Number of TLB faults due to prefetch
system.cpu.istage2_mmu.stage2_tlb.read_accesses            0                       # DTB read accesses
system.cpu.istage2_mmu.stage2_tlb.read_hits            0                       # DTB read hits
system.cpu.istage2_mmu.stage2_tlb.read_misses            0                       # DTB read misses
system.cpu.istage2_mmu.stage2_tlb.walker.pwrStateResidencyTicks::UNDEFINED   4982862500                       # Cumulative time (in ticks) in various power states
system.cpu.istage2_mmu.stage2_tlb.walker.walkRequestOrigin_Requested::Data            0                       # Table walker requests started/completed, data/inst
system.cpu.istage2_mmu.stage2_tlb.walker.walkRequestOrigin_Requested::Inst            0                       # Table walker requests started/completed, data/inst
system.cpu.istage2_mmu.stage2_tlb.walker.walkRequestOrigin_Requested::total            0                       # Table walker requests started/completed, data/inst
system.cpu.istage2_mmu.stage2_tlb.walker.walkRequestOrigin_Completed::Data            0                       # Table walker requests started/completed, data/inst
system.cpu.istage2_mmu.stage2_tlb.walker.walkRequestOrigin_Completed::Inst            0                       # Table walker requests started/completed, data/inst
system.cpu.istage2_mmu.stage2_tlb.walker.walkRequestOrigin_Completed::total            0                       # Table walker requests started/completed, data/inst
system.cpu.istage2_mmu.stage2_tlb.walker.walkRequestOrigin::total            0                       # Table walker requests started/completed, data/inst
system.cpu.istage2_mmu.stage2_tlb.walker.walks            0                       # Table walker walks requested
system.cpu.istage2_mmu.stage2_tlb.write_accesses            0                       # DTB write accesses
system.cpu.istage2_mmu.stage2_tlb.write_hits            0                       # DTB write hits
system.cpu.istage2_mmu.stage2_tlb.write_misses            0                       # DTB write misses
system.cpu.itb.accesses                             0                       # DTB accesses
system.cpu.itb.align_faults                         0                       # Number of TLB faults due to alignment restrictions
system.cpu.itb.domain_faults                        0                       # Number of TLB faults due to domain restrictions
system.cpu.itb.flush_entries                        0                       # Number of entries that have been flushed from TLB
system.cpu.itb.flush_tlb                            0                       # Number of times complete TLB was flushed
system.cpu.itb.flush_tlb_asid                       0                       # Number of times TLB was flushed by ASID
system.cpu.itb.flush_tlb_mva                        0                       # Number of times TLB was flushed by MVA
system.cpu.itb.flush_tlb_mva_asid                   0                       # Number of times TLB was flushed by MVA & ASID
system.cpu.itb.hits                                 0                       # DTB hits
system.cpu.itb.inst_accesses                        0                       # ITB inst accesses
system.cpu.itb.inst_hits                            0                       # ITB inst hits
system.cpu.itb.inst_misses                          0                       # ITB inst misses
system.cpu.itb.misses                               0                       # DTB misses
system.cpu.itb.perms_faults                         0                       # Number of TLB faults due to permissions restrictions
system.cpu.itb.prefetch_faults                      0                       # Number of TLB faults due to prefetch
system.cpu.itb.read_accesses                        0                       # DTB read accesses
system.cpu.itb.read_hits                            0                       # DTB read hits
system.cpu.itb.read_misses                          0                       # DTB read misses
system.cpu.itb.walker.pwrStateResidencyTicks::UNDEFINED   4982862500                       # Cumulative time (in ticks) in various power states
system.cpu.itb.walker.walkRequestOrigin_Requested::Data            0                       # Table walker requests started/completed, data/inst
system.cpu.itb.walker.walkRequestOrigin_Requested::Inst            0                       # Table walker requests started/completed, data/inst
system.cpu.itb.walker.walkRequestOrigin_Requested::total            0                       # Table walker requests started/completed, data/inst
system.cpu.itb.walker.walkRequestOrigin_Completed::Data            0                       # Table walker requests started/completed, data/inst
[...]
system.mem_ctrls.wrQLenPdf::19                      0                       # What write queue length does an incoming req see
system.mem_ctrls.wrQLenPdf::20                      0                       # What write queue length does an incoming req see
system.mem_ctrls.wrQLenPdf::21                      0                       # What write queue length does an incoming req see
system.mem_ctrls.wrQLenPdf::22                      0                       # What write queue length does an incoming req see
system.mem_ctrls.wrQLenPdf::23                      0                       # What write queue length does an incoming req see
system.mem_ctrls.wrQLenPdf::24                      0                       # What write queue length does an incoming req see
system.mem_ctrls.wrQLenPdf::25                      0                       # What write queue length does an incoming req see
system.mem_ctrls.wrQLenPdf::26                      0                       # What write queue length does an incoming req see
system.mem_ctrls.wrQLenPdf::27                      0                       # What write queue length does an incoming req see
system.mem_ctrls.wrQLenPdf::28                      0                       # What write queue length does an incoming req see
system.mem_ctrls.wrQLenPdf::29                      0                       # What write queue length does an incoming req see
system.mem_ctrls.wrQLenPdf::30                      0                       # What write queue length does an incoming req see
system.mem_ctrls.wrQLenPdf::31                      0                       # What write queue length does an incoming req see
system.mem_ctrls.wrQLenPdf::32                      0                       # What write queue length does an incoming req see
system.mem_ctrls.wrQLenPdf::33                      0                       # What write queue length does an incoming req see
system.mem_ctrls.wrQLenPdf::34                      0                       # What write queue length does an incoming req see
system.mem_ctrls.wrQLenPdf::35                      0                       # What write queue length does an incoming req see
system.mem_ctrls.wrQLenPdf::36                      0                       # What write queue length does an incoming req see
system.mem_ctrls.wrQLenPdf::37                      0                       # What write queue length does an incoming req see
system.mem_ctrls.wrQLenPdf::38                      0                       # What write queue length does an incoming req see
system.mem_ctrls.wrQLenPdf::39                      0                       # What write queue length does an incoming req see
system.mem_ctrls.wrQLenPdf::40                      0                       # What write queue length does an incoming req see
system.mem_ctrls.wrQLenPdf::41                      0                       # What write queue length does an incoming req see
system.mem_ctrls.wrQLenPdf::42                      0                       # What write queue length does an incoming req see
system.mem_ctrls.wrQLenPdf::43                      0                       # What write queue length does an incoming req see
system.mem_ctrls.wrQLenPdf::44                      0                       # What write queue length does an incoming req see
system.mem_ctrls.wrQLenPdf::45                      0                       # What write queue length does an incoming req see
system.mem_ctrls.wrQLenPdf::46                      0                       # What write queue length does an incoming req see
system.mem_ctrls.wrQLenPdf::47                      0                       # What write queue length does an incoming req see
system.mem_ctrls.wrQLenPdf::48                      0                       # What write queue length does an incoming req see
system.mem_ctrls.wrQLenPdf::49                      0                       # What write queue length does an incoming req see
system.mem_ctrls.wrQLenPdf::50                      0                       # What write queue length does an incoming req see
system.mem_ctrls.wrQLenPdf::51                      0                       # What write queue length does an incoming req see
system.mem_ctrls.wrQLenPdf::52                      0                       # What write queue length does an incoming req see
system.mem_ctrls.wrQLenPdf::53                      0                       # What write queue length does an incoming req see
system.mem_ctrls.wrQLenPdf::54                      0                       # What write queue length does an incoming req see
system.mem_ctrls.wrQLenPdf::55                      0                       # What write queue length does an incoming req see
system.mem_ctrls.wrQLenPdf::56                      0                       # What write queue length does an incoming req see
system.mem_ctrls.wrQLenPdf::57                      0                       # What write queue length does an incoming req see
system.mem_ctrls.wrQLenPdf::58                      0                       # What write queue length does an incoming req see
system.mem_ctrls.wrQLenPdf::59                      0                       # What write queue length does an incoming req see
system.mem_ctrls.wrQLenPdf::60                      0                       # What write queue length does an incoming req see
system.mem_ctrls.wrQLenPdf::61                      0                       # What write queue length does an incoming req see
system.mem_ctrls.wrQLenPdf::62                      0                       # What write queue length does an incoming req see
system.mem_ctrls.wrQLenPdf::63                      0                       # What write queue length does an incoming req see
system.mem_ctrls.writeBursts                        0                       # Number of DRAM write bursts, including those merged in the write queue
system.mem_ctrls.writePktSize::0                    0                       # Write request sizes (log2)
system.mem_ctrls.writePktSize::1                    0                       # Write request sizes (log2)
system.mem_ctrls.writePktSize::2                    0                       # Write request sizes (log2)
system.mem_ctrls.writePktSize::3                    0                       # Write request sizes (log2)
system.mem_ctrls.writePktSize::4                    0                       # Write request sizes (log2)
system.mem_ctrls.writePktSize::5                    0                       # Write request sizes (log2)
system.mem_ctrls.writePktSize::6                    0                       # Write request sizes (log2)
system.mem_ctrls.writeReqs                          0                       # Number of write requests accepted
system.mem_ctrls.writeRowHitRate                  nan                       # Row buffer hit rate for writes
system.mem_ctrls.writeRowHits                       0                       # Number of row buffer hits during writes
system.mem_ctrls_0.actBackEnergy            399869250                       # Energy for active background per rank (pJ)
system.mem_ctrls_0.actEnergy                 10738560                       # Energy for activate commands per rank (pJ)
system.mem_ctrls_0.actPowerDownEnergy               0                       # Energy for active power-down per rank (pJ)
system.mem_ctrls_0.averagePower            488.230236                       # Core power per rank (mW)
system.mem_ctrls_0.memoryStateTime::IDLE   4088252250                       # Time in different power states
system.mem_ctrls_0.memoryStateTime::REF     166140000                       # Time in different power states
system.mem_ctrls_0.memoryStateTime::SREF            0                       # Time in different power states
system.mem_ctrls_0.memoryStateTime::PRE_PDN            0                       # Time in different power states
system.mem_ctrls_0.memoryStateTime::ACT     728470250                       # Time in different power states
system.mem_ctrls_0.memoryStateTime::ACT_PDN            0                       # Time in different power states
system.mem_ctrls_0.preBackEnergy           1576687200                       # Energy for precharge background per rank (pJ)
system.mem_ctrls_0.preEnergy                  5688705                       # Energy for precharge commands per rank (pJ)
system.mem_ctrls_0.prePowerDownEnergy               0                       # Energy for precharge power-down per rank (pJ)
system.mem_ctrls_0.readEnergy                47045460                       # Energy for read commands per rank (pJ)
system.mem_ctrls_0.refreshEnergy         392754960.000000                       # Energy for refresh commands per rank (pJ)
system.mem_ctrls_0.selfRefreshEnergy                0                       # Energy for self refresh per rank (pJ)
system.mem_ctrls_0.totalEnergy             2432784135                       # Total energy per rank (pJ)
system.mem_ctrls_0.totalIdleTime                    0                       # Total Idle time Per DRAM Rank
system.mem_ctrls_0.writeEnergy                      0                       # Energy for write commands per rank (pJ)
system.mem_ctrls_1.actBackEnergy            404922870                       # Energy for active background per rank (pJ)
system.mem_ctrls_1.actEnergy                 10838520                       # Energy for activate commands per rank (pJ)
system.mem_ctrls_1.actPowerDownEnergy               0                       # Energy for active power-down per rank (pJ)
system.mem_ctrls_1.averagePower            488.436858                       # Core power per rank (mW)
system.mem_ctrls_1.memoryStateTime::IDLE   4076892000                       # Time in different power states
system.mem_ctrls_1.memoryStateTime::REF     166140000                       # Time in different power states
system.mem_ctrls_1.memoryStateTime::SREF            0                       # Time in different power states
system.mem_ctrls_1.memoryStateTime::PRE_PDN            0                       # Time in different power states
system.mem_ctrls_1.memoryStateTime::ACT     739830500                       # Time in different power states
system.mem_ctrls_1.memoryStateTime::ACT_PDN            0                       # Time in different power states
system.mem_ctrls_1.preBackEnergy           1572431520                       # Energy for precharge background per rank (pJ)
system.mem_ctrls_1.preEnergy                  5741835                       # Energy for precharge commands per rank (pJ)
system.mem_ctrls_1.prePowerDownEnergy               0                       # Energy for precharge power-down per rank (pJ)
system.mem_ctrls_1.readEnergy                47124000                       # Energy for read commands per rank (pJ)
system.mem_ctrls_1.refreshEnergy         392754960.000000                       # Energy for refresh commands per rank (pJ)
system.mem_ctrls_1.selfRefreshEnergy                0                       # Energy for self refresh per rank (pJ)
system.mem_ctrls_1.totalEnergy             2433813705                       # Total energy per rank (pJ)
system.mem_ctrls_1.totalIdleTime                    0                       # Total Idle time Per DRAM Rank
system.mem_ctrls_1.writeEnergy                      0                       # Energy for write commands per rank (pJ)
system.membus.pkt_count_system.l2.mem_side::system.mem_ctrls.port        26378                       # Packet count per connected master and slave (bytes)
system.membus.pkt_count::total                  26378                       # Packet count per connected master and slave (bytes)
system.membus.pkt_size_system.l2.mem_side::system.mem_ctrls.port       844096                       # Cumulative packet size per connected master and slave (bytes)
system.membus.pkt_size::total                  844096                       # Cumulative packet size per connected master and slave (bytes)
system.membus.pwrStateResidencyTicks::UNDEFINED   4982862500                       # Cumulative time (in ticks) in various power states
system.membus.reqLayer0.occupancy            19048000                       # Layer occupancy (ticks)
system.membus.reqLayer0.utilization               0.4                       # Layer utilization (%)
system.membus.respLayer1.occupancy           69797750                       # Layer occupancy (ticks)
system.membus.respLayer1.utilization              1.4                       # Layer utilization (%)
system.membus.snoopTraffic                          0                       # Total snoop traffic (bytes)
system.membus.snoop_fanout::samples             13189                       # Request fanout histogram
system.membus.snoop_fanout::mean                    0                       # Request fanout histogram
system.membus.snoop_fanout::stdev                   0                       # Request fanout histogram
system.membus.snoop_fanout::underflows              0      0.00%      0.00% # Request fanout histogram
system.membus.snoop_fanout::0                   13189    100.00%    100.00% # Request fanout histogram
system.membus.snoop_fanout::1                       0      0.00%    100.00% # Request fanout histogram
system.membus.snoop_fanout::overflows               0      0.00%    100.00% # Request fanout histogram
system.membus.snoop_fanout::min_value               0                       # Request fanout histogram
system.membus.snoop_fanout::max_value               0                       # Request fanout histogram
system.membus.snoop_fanout::total               13189                       # Request fanout histogram
system.membus.snoop_filter.hit_multi_requests            0                       # Number of requests hitting in the snoop filter with multiple (>1) holders of the requested data.
system.membus.snoop_filter.hit_multi_snoops            0                       # Number of snoops hitting in the snoop filter with multiple (>1) holders of the requested data.
system.membus.snoop_filter.hit_single_requests            0                       # Number of requests hitting in the snoop filter with a single holder of the requested data.
system.membus.snoop_filter.hit_single_snoops            0                       # Number of snoops hitting in the snoop filter with a single holder of the requested data.
system.membus.snoop_filter.tot_requests         13189                       # Total number of requests made to the snoop filter.
system.membus.snoop_filter.tot_snoops               0                       # Total number of snoops made to the snoop filter.
system.membus.snoops                                0                       # Total snoops (count)
system.membus.trans_dist::ReadResp                635                       # Transaction distribution
system.membus.trans_dist::ReadExReq             12554                       # Transaction distribution
system.membus.trans_dist::ReadExResp            12554                       # Transaction distribution
system.membus.trans_dist::ReadSharedReq           635                       # Transaction distribution
system.tol2bus.pkt_count_system.cpu.icache.mem_side::system.l2.cpu_side         1303                       # Packet count per connected master and slave (bytes)
system.tol2bus.pkt_count_system.cpu.dcache.mem_side::system.l2.cpu_side        93449                       # Packet count per connected master and slave (bytes)
system.tol2bus.pkt_count::total                 94752                       # Packet count per connected master and slave (bytes)
system.tol2bus.pkt_size_system.cpu.icache.mem_side::system.l2.cpu_side        46976                       # Cumulative packet size per connected master and slave (bytes)
system.tol2bus.pkt_size_system.cpu.dcache.mem_side::system.l2.cpu_side      3960320                       # Cumulative packet size per connected master and slave (bytes)
system.tol2bus.pkt_size::total                4007296                       # Cumulative packet size per connected master and slave (bytes)
system.tol2bus.pwrStateResidencyTicks::UNDEFINED   4982862500                       # Cumulative time (in ticks) in various power states
system.tol2bus.reqLayer0.occupancy           61900000                       # Layer occupancy (ticks)
system.tol2bus.reqLayer0.utilization              1.2                       # Layer utilization (%)
system.tol2bus.respLayer0.occupancy            853999                       # Layer occupancy (ticks)
system.tol2bus.respLayer0.utilization             0.0                       # Layer utilization (%)
system.tol2bus.respLayer1.occupancy          47239993                       # Layer occupancy (ticks)
system.tol2bus.respLayer1.utilization             0.9                       # Layer utilization (%)
system.tol2bus.snoopTraffic                         0                       # Total snoop traffic (bytes)
system.tol2bus.snoop_fanout::samples            32060                       # Request fanout histogram
system.tol2bus.snoop_fanout::mean            0.001591                       # Request fanout histogram
system.tol2bus.snoop_fanout::stdev           0.039853                       # Request fanout histogram
system.tol2bus.snoop_fanout::underflows             0      0.00%      0.00% # Request fanout histogram
system.tol2bus.snoop_fanout::0                  32009     99.84%     99.84% # Request fanout histogram
system.tol2bus.snoop_fanout::1                     51      0.16%    100.00% # Request fanout histogram
system.tol2bus.snoop_fanout::2                      0      0.00%    100.00% # Request fanout histogram
system.tol2bus.snoop_fanout::overflows              0      0.00%    100.00% # Request fanout histogram
system.tol2bus.snoop_fanout::min_value              0                       # Request fanout histogram
system.tol2bus.snoop_fanout::max_value              1                       # Request fanout histogram
system.tol2bus.snoop_fanout::total              32060                       # Request fanout histogram
system.tol2bus.snoop_filter.hit_multi_requests           33                       # Number of requests hitting in the snoop filter with multiple (>1) holders of the requested data.
system.tol2bus.snoop_filter.hit_multi_snoops            0                       # Number of snoops hitting in the snoop filter with multiple (>1) holders of the requested data.
system.tol2bus.snoop_filter.hit_single_requests        30650                       # Number of requests hitting in the snoop filter with a single holder of the requested data.
system.tol2bus.snoop_filter.hit_single_snoops            0                       # Number of snoops hitting in the snoop filter with a single holder of the requested data.
system.tol2bus.snoop_filter.tot_requests        62692                       # Total number of requests made to the snoop filter.
system.tol2bus.snoop_filter.tot_snoops              0                       # Total number of snoops made to the snoop filter.
system.tol2bus.snoops                               0                       # Total snoops (count)
system.tol2bus.trans_dist::ReadResp             19490                       # Transaction distribution
system.tol2bus.trans_dist::WritebackDirty        30389                       # Transaction distribution
system.tol2bus.trans_dist::WritebackClean          165                       # Transaction distribution
system.tol2bus.trans_dist::CleanEvict              78                       # Transaction distribution
system.tol2bus.trans_dist::ReadExReq            12570                       # Transaction distribution
system.tol2bus.trans_dist::ReadExResp           12570                       # Transaction distribution
system.tol2bus.trans_dist::ReadCleanReq           569                       # Transaction distribution
system.tol2bus.trans_dist::ReadSharedReq        18921                       # Transaction distribution
system.voltage_domain.voltage                       1                       # Voltage in Volts

---------- End Simulation Statistics   ----------
